LTspice 24.0.12 for Windows
Circuit: * C:\UTN\2024\TC2\TS7\Ej 2\Draft1.asc
Start Time: Wed Aug 14 18:50:26 2024
solver = Normal
Maximum thread count: 12
tnom = 27
temp = 27
method = modified trap
.OP point found by inspection.
Total elapsed time: 0.127 seconds.

