LTspice 24.0.12 for Windows
Circuit: * C:\UTN\2024\TC2\Mi_Repo\TC2\TS12\Draft1.asc
Start Time: Tue Oct 29 11:02:55 2024
solver = Normal
Maximum thread count: 12
tnom = 27
temp = 27
method = modified trap
.OP point found by inspection.
Total elapsed time: 0.074 seconds.

