LTspice 24.0.12 for Windows
Circuit: * C:\UTN\2024\TC2\Mi_Repo\TC2\TPLAB1\Draft1.asc
Start Time: Mon Aug 26 20:17:56 2024
solver = Normal
Maximum thread count: 12
tnom = 27
temp = 27
method = modified trap
WARNING: Specified period is not longer than the sum of Trise, Tfall, and Ton for v1.  Increasing period to 6.02
Direct Newton iteration failed to find .op point.  (Use ".option noopiter" to skip.)
Starting Gmin stepping
Increasing initial diagonal Gmin to 100
Gmin = 100
Gmin = 10.7374
Gmin = 1.15292
Gmin = 0.123794
Gmin = 0.0132923
Gmin = 0.00142725
Gmin = 0.00015325
Gmin = 1.6455e-05
Gmin = 1.76685e-06
Gmin = 1.89714e-07
Gmin = 2.03704e-08
Gmin = 2.18725e-09
Gmin = 2.34854e-10
Gmin = 2.52173e-11
Gmin = 2.70769e-12
Gmin = 2.90735e-13
Gmin = 0
Gmin stepping succeeded in finding the operating point.

Total elapsed time: 0.106 seconds.

