LTspice 24.0.12 for Windows
Circuit: * C:\UTN\2024\TC2\TPLAB1\Filtro_Notch.asc
Start Time: Sat Aug 24 16:47:39 2024
solver = Normal
Maximum thread count: 12
tnom = 27
temp = 27
method = modified trap
ERROR: Node NC_08 is floating and connected to current source G:U5:2:11
ERROR: Node NC_11 is floating and connected to current source G:U5:2:21
ERROR: Node NC_14 is floating and connected to current source G:U5:3:11
ERROR: Node NC_05 is floating and connected to current source G:U5:4:11
ERROR: Node NC_04 is floating and connected to current source G:U5:4:21

Early termination of direct N-R iteration.
Direct Newton iteration failed to find .op point.  (Use ".option noopiter" to skip.)
Starting Gmin stepping
Gmin = 10
vernier = 0.5
vernier = 0.25
vernier = 0.125
Gmin = 5.5165
vernier = 0.0625
vernier = 0.03125
vernier = 0.015625
vernier = 0.0078125
Gmin = 5.49501
vernier = 0.00390625
vernier = 0.00195312
vernier = 0.000976562
vernier = 0.000488281
Gmin = 5.50104
Gmin = 0
Gmin stepping failed

Starting source stepping with srcstepmethod=0
Source Step = 3.0303%
Source Step = 33.3333%
Source Step = 63.6364%
Source Step = 93.9394%
Source stepping succeeded in finding the operating point.

Ignoring empty pin current: Ix(u1:1)
Ignoring empty pin current: Ix(u1:2)
Ignoring empty pin current: Ix(u2:1)
Ignoring empty pin current: Ix(u2:2)
Ignoring empty pin current: Ix(u3:1)
Ignoring empty pin current: Ix(u3:2)
Ignoring empty pin current: Ix(u4:1)
Ignoring empty pin current: Ix(u4:2)
Ignoring empty pin current: Ix(u1:1)
Ignoring empty pin current: Ix(u1:2)
Ignoring empty pin current: Ix(u2:1)
Ignoring empty pin current: Ix(u2:2)
Ignoring empty pin current: Ix(u3:1)
Ignoring empty pin current: Ix(u3:2)
Ignoring empty pin current: Ix(u4:1)
Ignoring empty pin current: Ix(u4:2)
Total elapsed time: 0.610 seconds.

