LTspice 24.0.12 for Windows
Circuit: * C:\UTN\2024\TC2\Mi_Repo\TC2\TS11\Ej1.asc
Start Time: Sun Oct 27 21:21:35 2024
solver = Normal
Maximum thread count: 12
tnom = 27
temp = 27
method = modified trap
WARNING: Node N005 is floating.

.OP point found by inspection.
Total elapsed time: 0.123 seconds.

