Circuit: * Z:\home\martin\Escritorio\2024\githubTC2\TC2\TS3\Spice\TS3_DESNORMALIZADO.asc

Ignoring empty pin current: Ix(u1:1)
Ignoring empty pin current: Ix(u1:2)

Date: Thu Jun 20 16:52:33 2024
Total elapsed time: 0.035 seconds.

tnom = 27
temp = 27
method = trap
totiter = 0
traniter = 0
tranpoints = 0
accept = 0
rejected = 0
matrix size = 5
fillins = 0
solver = Normal

