LTspice 24.0.12 for Windows
Circuit: * C:\UTN\2024\TC2\Mi_Repo\TC2\TS5\spice\TS5_Desnormalizada.asc
Start Time: Tue Jun 25 16:00:08 2024
solver = Normal
Maximum thread count: 12
tnom = 27
temp = 27
method = modified trap
.OP point found by inspection.
Ignoring empty pin current: Ix(u1:1)
Ignoring empty pin current: Ix(u1:2)
Ignoring empty pin current: Ix(u1:1)
Ignoring empty pin current: Ix(u1:2)
Total elapsed time: 0.061 seconds.

