Circuit: * Z:\home\martin\Escritorio\2024\githubTC2\TC2\TS5\spice\TS5_NORMALIZADA.asc

Ignoring empty pin current: Ix(u1:1)
Ignoring empty pin current: Ix(u1:2)

Date: Mon Jun 24 15:27:28 2024
Total elapsed time: 0.029 seconds.

tnom = 27
temp = 27
method = trap
totiter = 0
traniter = 0
tranpoints = 0
accept = 0
rejected = 0
matrix size = 6
fillins = 1
solver = Normal

